# generated using pymatgen
data_TiSb
_symmetry_space_group_name_H-M   'P 1'
_cell_length_a   5.13851053
_cell_length_b   6.70265748
_cell_length_c   4.81925180
_cell_angle_alpha   90.00000000
_cell_angle_beta   90.00000000
_cell_angle_gamma   90.00000000
_symmetry_Int_Tables_number   1
_chemical_formula_structural   TiSb
_chemical_formula_sum   'Ti4 Sb4'
_cell_volume   165.98310914403635
_cell_formula_units_Z   4
loop_
 _symmetry_equiv_pos_site_id
 _symmetry_equiv_pos_as_xyz
  1  'x, y, z'
loop_
 _atom_site_type_symbol
 _atom_site_label
 _atom_site_symmetry_multiplicity
 _atom_site_fract_x
 _atom_site_fract_y
 _atom_site_fract_z
 _atom_site_occupancy
  Ti  Ti1  1  0.338540  0.500000  0.500001  1
  Ti  Ti2  1  0.478495  0.755694  0.000000  1
  Ti  Ti3  1  0.020769  0.500000  0.000000  1
  Ti  Ti4  1  0.478495  0.244306  0.000000  1
  Sb  Sb5  1  0.841074  0.712773  0.500001  1
  Sb  Sb6  1  0.841074  0.287228  0.500001  1
  Sb  Sb7  1  0.362698  0.000000  0.500001  1
  Sb  Sb8  1  0.972184  0.000000  0.000000  1
