# generated using pymatgen
data_BeGaFeCu
_symmetry_space_group_name_H-M   'P 1'
_cell_length_a   4.03544460
_cell_length_b   4.03544460
_cell_length_c   4.03544460
_cell_angle_alpha   59.99945931
_cell_angle_beta   59.99945931
_cell_angle_gamma   59.99945931
_symmetry_Int_Tables_number   1
_chemical_formula_structural   BeGaFeCu
_chemical_formula_sum   'Be1 Ga1 Fe1 Cu1'
_cell_volume   46.46798564588337
_cell_formula_units_Z   1
loop_
 _symmetry_equiv_pos_site_id
 _symmetry_equiv_pos_as_xyz
  1  'x, y, z'
loop_
 _atom_site_type_symbol
 _atom_site_label
 _atom_site_symmetry_multiplicity
 _atom_site_fract_x
 _atom_site_fract_y
 _atom_site_fract_z
 _atom_site_occupancy
  Ga  Ga1  1  0.000000  0.000000  0.000000  1
  Fe  Fe2  1  0.500000  0.500000  0.500000  1
  Cu  Cu3  1  0.750000  0.750000  0.750000  1
  Be  Be4  1  0.250002  0.250002  0.250002  1
